referencia/NA205.dgs
********************************************************************************
*
* DIgSILENT (R) DGS Export V1.8.4
* Copyright (C) DIgSILENT GmbH 2026. All rights reserved.
*
* DIgSILENT (C) PowerFactory V21.0.7.0
*
* Date:     09/10/2026 16:01
* Project:  NA203 NA205 (Study Case: NASCA B22.9kV_PROY_V2)
*
********************************************************************************


$$General;FID(a:40);Descr(a:40);Val(a:40)
  1;Version;7.0


$$ElmBay;FID(a:40);OP(a:1);loc_name(a:40);fold_id(p);position(i)
  2;C;1;821;1
  3;C;2;821;2
  4;C;3;821;3
  5;C;4;821;4


$$ElmCoup;FID(a:40);OP(a:1);loc_name(a:40);fold_id(p);typ_id(p);on_off(i);aUsage(a:4);nphase(i);nneutral(i)
  6;C;Breaker/Switch;NA203;;1;dct;3;0
  7;C;CB1;2;;1;cbk;3;0
  8;C;IS1.1;2;;1;dct;3;0
  9;C;IS1.2;2;;1;dct;3;0
  10;C;CB2;3;;1;cbk;3;0
  11;C;IS2.1;3;;1;dct;3;0
  12;C;IS2.2;3;;1;dct;3;0
  13;C;CB3;4;;1;cbk;3;0
  14;C;IS3.1;4;;1;dct;3;0
  15;C;IS3.2;4;;1;dct;3;0
  16;C;CB4;5;;1;cbk;3;0
  17;C;IS4.1;5;;1;dct;3;0
  18;C;IS4.2;5;;1;dct;3;0


$$ElmFeeder;FID(a:40);OP(a:1);loc_name(a:40);obj_id(p);iorient(i);i_scale(i);Sset(r);icolor(i);outserv(i)
  19;C;Substation_16443;5877;0;0;0;11;0
  20;C;Substation_957805;5883;0;0;0;10;0


$$ElmGenstat;FID(a:40);OP(a:1);loc_name(a:40);fold_id(p);outserv(i);sgn(r);cosn(r);cCategory(a);av_mode(a);mode_inp(a:3);pgini(r);qgini(r);sgini(r);cosgini(r);pf_recap(i);phtech(i);ngnum(i);ip_ctrl(i);usetp(r);phiini(r);Kpf(r);scale0(r)
  21;C;Static Generator;NA203;0;9.9;0.96;Wind;constv;DEF;9;0;9;1;0;0;1;0;1;0;0;1


$$ElmLne;FID(a:40);OP(a:1);loc_name(a:40);fold_id(p);typ_id(p);dline(r);fline(r);GPScoords:MATRIX;nlnum(i);inAir(i)
  22;C;12307;NA203;6250;0.02888;1;;1;0
  23;C;12310(1);NA203;6250;0.71696;1;;1;0
  24;C;13636;NA203;6247;0.15234;1;;1;0
  25;C;13638(1);NA203;6248;0.00961;1;;1;0
  26;C;13638(3);NA203;6248;0.00961;1;;1;0
  27;C;13638(4);NA203;6248;0.00961;1;;1;0
  28;C;13638;NA203;6248;0.00961;1;;1;0
  29;C;13646;NA203;6250;0.02899;1;;1;0
  30;C;13647(1);NA203;6247;0.1;1;;1;0
  31;C;13647(1)_a;NA203;6247;0.05332;1;;1;0
  32;C;13647;NA203;6247;0.05332;1;;1;0
  33;C;13650;NA203;6250;0.02484;1;;1;0
  34;C;13651;NA203;6247;0.12332;1;;1;0
  35;C;13724;NA203;6249;0.01991;1;;1;0
  36;C;13725;NA203;6250;0.35761;1;;1;0
  37;C;13729;NA203;6250;0.01819;1;;1;0
  38;C;13730(1);NA203;6247;0.247;1;;1;0
  39;C;13730;NA203;6247;0.507;1;;1;0
  40;C;13730_a;NA203;6247;0.247;1;;1;0
  41;C;13736;NA203;6249;0.02048;1;;1;0
  42;C;14129;NA203;6246;0.30884;1;;1;0
  43;C;14131;NA203;6249;0.02639;1;;1;0
  44;C;14132;NA203;6247;0.12431;1;;1;0
  45;C;14236;NA203;6250;0.0293;1;;1;0
  46;C;14239;NA203;6249;0.00499;1;;1;0
  47;C;16428;NA203;6247;0.31;1;;1;0
  48;C;16430(1);NA203;6247;0.04687;1;;1;0
  49;C;16430;NA203;6247;0.04687;1;;1;0
  50;C;16433;NA203;6248;0.04712;1;;1;0
  51;C;16434;NA203;6248;0.0268;1;;1;0
  52;C;16435;NA203;6248;0.16895;1;;1;0
  53;C;16443;NA203;6247;0.19;1;;1;0
  54;C;16447;NA203;6250;0.02972;1;;1;0
  55;C;16448;NA203;6247;0.29206;1;;1;0
  56;C;16449;NA203;6247;0.29761;1;;1;0
  57;C;16450;NA203;6248;0.0405;1;;1;0
  58;C;16453;NA203;6248;0.03481;1;;1;0
  59;C;16454;NA203;6248;0.02216;1;;1;0
  60;C;16455;NA203;6248;1.52547;1;;1;0
  61;C;16456;NA203;6248;0.17029;1;;1;0
  62;C;16457;NA203;6248;0.20758;1;;1;0
  63;C;16459;NA203;6248;0.14294;1;;1;0
  64;C;16460;NA203;6249;0.05197;1;;1;0
  65;C;16461;NA203;6247;0.1386;1;;1;0
  66;C;16462;NA203;6249;0.04727;1;;1;0
  67;C;16463;NA203;6250;1.59255;1;;1;0
  68;C;16464;NA203;6249;0.09123;1;;1;0
  69;C;16465;NA203;6249;0.29759;1;;1;0
  70;C;16466;NA203;6249;0.02966;1;;1;0
  71;C;16467;NA203;6249;0.88;1;;1;0
  72;C;16467_a;NA203;6249;1.281;1;;1;0
  73;C;16468;NA203;6248;0.02579;1;;1;0
  74;C;16469;NA203;6248;0.01479;1;;1;0
  75;C;16470;NA203;6248;0.19626;1;;1;0
  76;C;16472;NA203;6248;1.46278;1;;1;0
  77;C;16473;NA203;6248;1.557;1;;1;0
  78;C;16473_a;NA203;6248;0.665;1;;1;0
  79;C;16474;NA203;6248;0.02031;1;;1;0
  80;C;16475;NA203;6248;0.02162;1;;1;0
  81;C;16476;NA203;6248;0.03181;1;;1;0
  82;C;16477;NA203;6248;1.90031;1;;1;0
  83;C;16478;NA203;6248;0.02486;1;;1;0
  84;C;16479;NA203;6248;0.67898;1;;1;0
  85;C;16481;NA203;6248;0.43862;1;;1;0
  86;C;16482;NA203;6248;0.07803;1;;1;0
  87;C;16483;NA203;6248;0.35125;1;;1;0
  88;C;16484;NA203;6248;0.02746;1;;1;0
  89;C;16486;NA203;6250;0.02335;1;;1;0
  90;C;16487;NA203;6250;0.07314;1;;1;0
  91;C;16489;NA203;6250;0.09031;1;;1;0
  92;C;16490;NA203;6250;0.01841;1;;1;0
  93;C;16491;NA203;6248;0.18404;1;;1;0
  94;C;16493;NA203;6248;0.16616;1;;1;0
  95;C;18098;NA203;6250;0.03022;1;;1;0
  96;C;18099(1);NA203;6247;0.454;1;;1;0
  97;C;18099(1)_a;NA203;6247;0.59175;1;;1;0
  98;C;18099;NA203;6247;0.59175;1;;1;0
  99;C;18220;NA203;6247;0.102;1;;1;0
  100;C;18230(1);NA203;6249;0.0165;1;;1;0
  101;C;18230;NA203;6249;0.0165;1;;1;0
  102;C;19167;NA203;6247;0.01691;1;;1;0
  103;C;19172;NA203;6247;0.12417;1;;1;0
  104;C;19173;NA203;6249;0.02811;1;;1;0
  105;C;19174;NA203;6247;0.12431;1;;1;0
  106;C;19177(2);NA203;6247;0.09;1;;1;0
  107;C;19177(3);NA203;6247;0.08123;1;;1;0
  108;C;19177;NA203;6247;0.08123;1;;1;0
  109;C;19179(1);NA203;6247;1.104;1;;1;0
  110;C;19179;NA203;6247;1.104;1;;1;0
  111;C;19193;NA203;6247;0.24141;1;;1;0
  112;C;19199(1);NA203;6247;0.35;1;;1;0
  113;C;19199(1)_a;NA203;6247;0.049935;1;;1;0
  114;C;19199;NA203;6247;0.35;1;;1;0
  115;C;19402;NA203;6249;0.03468;1;;1;0
  116;C;19403;NA203;6249;1.80829;1;;1;0
  117;C;19436;NA203;6249;0.02284;1;;1;0
  118;C;19437;NA203;6247;0.1;1;;1;0
  119;C;19841;NA203;6249;0.05283;1;;1;0
  120;C;19842(1);NA203;6247;0.654;1;;1;0
  121;C;19842(1)_a;NA203;6247;0.26;1;;1;0
  122;C;19842(1)_b;NA203;6247;2.41;1;;1;0
  123;C;19842;NA203;6247;0.169;1;;1;0
  124;C;19842_a;NA203;6247;0.26;1;;1;0
  125;C;19842_b;NA203;6247;0.742;1;;1;0
  126;C;19892;NA203;6247;0.1;1;;1;0
  127;C;19897;NA203;6249;0.04449;1;;1;0
  128;C;19898;NA203;6248;0.20414;1;;1;0
  129;C;19925;NA203;6249;0.01115;1;;1;0
  130;C;19926;NA203;6247;0.622;1;;1;0
  131;C;19928;NA203;6247;0.354;1;;1;0
  132;C;19929;NA203;6247;0.19048;1;;1;0
  133;C;19936;NA203;6249;0.0365;1;;1;0
  134;C;19937;NA203;6247;0.19564;1;;1;0
  135;C;19944;NA203;6248;0.00748;1;;1;0
  136;C;19945(1);NA203;6247;1.58;1;;1;0
  137;C;19949;NA203;6249;0.02711;1;;1;0
  138;C;19950(1);NA203;6247;0.06991;1;;1;0
  139;C;19955;NA203;6249;0.02747;1;;1;0
  140;C;19970;NA203;6248;0.0322;1;;1;0
  141;C;19971;NA203;6247;0.363;1;;1;0
  142;C;20254;NA203;6249;0.0192;1;;1;0
  143;C;20256(1);NA203;6247;0.102;1;;1;0
  144;C;20256(1)_a;NA203;6247;0.02;1;;1;0
  145;C;20256(1)_b;NA203;6247;0.19505;1;;1;0
  146;C;20256;NA203;6247;0.19505;1;;1;0
  147;C;20274(1);NA203;6248;0.05149;1;;1;0
  148;C;20274;NA203;6248;0.05149;1;;1;0
  149;C;20275;NA203;6250;0.09235;1;;1;0
  150;C;20401;NA203;6250;0.05067;1;;1;0
  151;C;20410;NA203;6250;0.02128;1;;1;0
  152;C;20411;NA203;6247;0.05715;1;;1;0
  153;C;20503;NA203;6249;0.03273;1;;1;0
  154;C;20504(1);NA203;6247;0.19974;1;;1;0
  155;C;20504;NA203;6247;0.19974;1;;1;0
  156;C;20505;NA203;6249;0.045;1;;1;0
  157;C;20506;NA203;6248;0.70964;1;;1;0
  158;C;21387;NA203;6248;0.0356;1;;1;0
  159;C;21388;NA203;6248;0.14087;1;;1;0
  160;C;21390;NA203;6250;1.6732;1;;1;0
  161;C;21391;NA203;6250;0.33673;1;;1;0
  162;C;21392;NA203;6250;1.28934;1;;1;0
  163;C;21394;NA203;6248;0.12;1;;1;0
  164;C;21395;NA203;6248;0.21777;1;;1;0
  165;C;21396;NA203;6249;0.1322;1;;1;0
  166;C;21397;NA203;6249;0.88124;1;;1;0
  167;C;21398;NA203;6248;0.86706;1;;1;0
  168;C;21399;NA203;6248;0.35;1;;1;0
  169;C;22408;NA203;6247;0.21;1;;1;0
  170;C;22408_a;NA203;6247;0.535;1;;1;0
  171;C;22409;NA203;6250;0.04976;1;;1;0
  172;C;23278;NA203;6250;0.02192;1;;1;0
  173;C;23280;NA203;6250;0.26731;1;;1;0
  174;C;23281;NA203;6250;0.09299;1;;1;0
  175;C;23282;NA203;6250;0.01815;1;;1;0
  176;C;23759(1);NA203;6253;0.04998;1;;1;0
  177;C;23759;NA203;6253;0.04998;1;;1;0
  178;C;23760;NA203;6248;0.08517;1;;1;0
  179;C;23762;NA203;6250;0.12369;1;;1;0
  180;C;23766;NA203;6253;0.00668;1;;1;0
  181;C;24030;NA203;6249;0.03672;1;;1;0
  182;C;24053;NA203;6250;0.00818;1;;1;0
  183;C;24405;NA203;6249;0.01529;1;;1;0
  184;C;24406;NA203;6250;1.23152;1;;1;0
  185;C;24848(1);NA203;6247;0.15073;1;;1;0
  186;C;24849;NA203;6250;0.15194;1;;1;0
  187;C;24850;NA203;6249;0.00608;1;;1;0
  188;C;24851(1);NA203;6249;0.00358;1;;1;0
  189;C;24851(1)_a;NA203;6249;0.00358;1;;1;0
  190;C;24851(10);NA203;6249;0.00716;1;;1;0
  191;C;24851(11);NA203;6249;0.00716;1;;1;0
  192;C;24851(2);NA203;6249;0.00716;1;;1;0
  193;C;24851(3);NA203;6249;0.00716;1;;1;0
  194;C;24851(4);NA203;6249;0.00716;1;;1;0
  195;C;24851(5);NA203;6247;0.00216;1;;1;0
  196;C;24851(6);NA203;6247;0.00416;1;;1;0
  197;C;24851(7);NA203;6249;0.00716;1;;1;0
  198;C;24851(8);NA203;6249;0.00716;1;;1;0
  199;C;24851(9);NA203;6247;0.167;1;;1;0
  200;C;24851;NA203;6249;0.00716;1;;1;0
  201;C;24852;NA203;6249;0.01646;1;;1;0
  202;C;24853;NA203;6247;0.21331;1;;1;0
  203;C;24857;NA203;6247;0.01521;1;;1;0
  204;C;24858(1)_a;NA203;6247;0.162525;1;;1;0
  205;C;24858(2);NA203;6247;0.25;1;;1;0
  206;C;24858(2)_a;NA203;6247;0.25;1;;1;0
  207;C;24858;NA203;6247;0.32505;1;;1;0
  208;C;24989;NA203;6253;0.03839;1;;1;0
  209;C;24990;NA203;6248;0.16433;1;;1;0
  210;C;25241;NA203;6251;0.06003;1;;1;0
  211;C;25243;NA203;6251;0.04529;1;;1;0
  212;C;25244;NA203;6251;1.45099;1;;1;0
  213;C;25245;NA203;6251;0.76611;1;;1;0
  214;C;25246;NA203;6251;1.50264;1;;1;0
  215;C;25247;NA203;6251;0.19601;1;;1;0
  216;C;25251;NA203;6251;1.36931;1;;1;0
  217;C;700600;NA203;6250;1.34086;1;;1;0
  218;C;700648(1);NA203;6247;0.09474;1;;1;0
  219;C;700653;NA203;6250;0.12032;1;;1;0
  220;C;700654;NA203;6249;0.13833;1;;1;0
  221;C;701497;NA203;6248;0.58053;1;;1;0
...


$$ElmLod;FID(a:40);OP(a:1);loc_name(a:40);fold_id(p);typ_id(p);mode_inp(a:3);slini(r);plini(r);qlini(r);coslini(r);pf_recap(i);scale0(r);i_scale(i);outserv(i);classif(a:20)
  506;C;3H Mining;NA203;;PC;0.569791;0.547;0.159541;0.96;0;1;1;0;
  507;C;A&M Don Aurelio;NA203;;PC;0.976041;0.937;0.273291;0.96;0;1;1;0;
  508;C;Agragados y Concretos SRL;NA203;;PC;0.114583;0.11;0.032083;0.96;0;1;1;0;
  509;C;Agregados y Concretos_SE50251;NA203;;PC;0.229166;0.22;0.064166;0.96;0;1;1;0;
  510;C;Balanza Libra Group;NA203;;PC;0.136458;0.131;0.038208;0.96;0;1;1;0;
  511;C;CIA MINERA MIGUEL ANGEL;NA203;;PC;1.110861;1.066427;0.311041;0.96;0;1;1;0;
  512;C;COVEMINE S.C.R.L.;NA203;;PC;0.534997;0.513597;0.149799;0.96;0;1;1;0;
  513;C;Cesar Monge Marquez_Ampl. 700099297;NA203;;PC;0.3125;0.3;0.087500;0.959999;0;1;1;0;
  514;C;Concentramin;NA203;;PC;0.746739;0.71687;0.209087;0.96;0;1;1;0;
  515;C;El Rosario;NA203;;PC;0.064583;0.062;0.018083;0.96;0;1;1;0;
  516;C;Empresa_COVEMINE;NA203;;PC;1.295833;1.244;0.362833;0.96;0;1;1;0;
  517;C;FUNDO LUCIANA;NA203;;PC;0.405208;0.389;0.113458;0.96;0;1;1;0;
  518;C;FUNDO SAN JOSE III U.C. 61249;NA203;;PC;0.215739;0.207109;0.060407;0.96;0;1;1;0;
  519;C;Fundo Cuatro Vientos;NA203;;PC;0;0;0;0;0;1;1;0;
  520;C;Fundo Luciana_501 KWW;NA203;;PC;0.239583;0.23;0.067083;0.96;0;1;1;0;
  521;C;General Load;NA203;;DEF;0;0;0;0;0;1;1;0;
  522;C;Gian Franco;NA203;;PC;0.083333;0.08;0.023333;0.96;0;1;1;0;
  523;C;HONGWEN POLYMETALLIC CORP. S.A.C.;NA203;;PC;0.555430;0.533213;0.155520;0.96;0;1;1;0;
  524;C;Jose Oriol Alfaro Penado;NA203;;PC;0.032291;0.031;0.009041;0.96;0;1;1;0;
  525;C;Kilate Corporation SAC;NA203;;PC;0.567708;0.545;0.158958;0.96;0;1;1;0;
  526;C;LA AZULITA S.AC.;NA203;;PC;0.310374;0.297959;0.086904;0.959999;0;1;1;0;
  527;C;MEXTRADING EIRL;NA203;;PC;0.632291;0.607;0.177041;0.96;0;1;1;0;
  528;C;MINERA PECAN;NA203;;PC;0.364881;0.350286;0.102166;0.96;0;1;1;0;
  529;C;MINERA PECHE;NA203;;PC;0.675;0.648;0.189000;0.96;0;1;1;0;
  530;C;Miguel Aybar Molina;NA203;;PC;0.616239;0.59159;0.172547;0.959999;0;1;1;0;
  531;C;Minera Alfa Golden SAC;NA203;;PC;0.591666;0.568;0.165666;0.96;0;1;1;0;
  532;C;PLANTA DE BENEFICIO KANTU;NA203;;PC;1.364583;1.31;0.382083;0.96;0;1;1;0;
  533;C;PLANTA PROCESADORA LOS ANGELES;NA203;;PC;0.416666;0.4;0.116666;0.96;0;1;1;0;
  534;C;PREDIO DE JUSTINO FEDERICO AYBAR M;NA203;;PC;0.332447;0.319149;0.093085;0.96;0;1;1;0;
  535;C;PREDIO JESUS E.CARDENAS M. NASCA;NA203;;PC;0.121627;0.116762;0.034055;0.96;0;1;1;0;
  536;C;PREDIO SUBLOTE N 01-FUNDO YANACA;NA203;;PC;0.131548;0.126286;0.036833;0.96;0;1;1;0;
  537;C;Planta Chancadora El Espartano;NA203;;PC;0.104166;0.1;0.029166;0.96;0;1;1;0;
  538;C;Procesamiento De Minerales Alonso;NA203;;PC;0;0;0;0;0;1;1;0;
  539;C;ROSTOV TECHNOLOGIES;NA203;;PC;0.648678;0.622731;0.18163;0.96;0;1;1;0;
  540;C;SE50066;NA203;;DEF;0;0;0;0;0;0.95;1;0;
  541;C;SE50109;NA203;;DEF;0;0;0;0;0;0.95;1;0;
  542;C;SE50253;NA203;;DEF;0;0;0;0;0;0.95;1;0;
  543;C;SE50325;NA203;;DEF;0;0;0;0;0;0.95;1;0;
  544;C;SE50326;NA203;;DEF;0;0;0;0;0;0.95;1;0;
  545;C;SE50328;NA203;;DEF;0;0;0;0;0;0.95;1;0;
  546;C;C_M50099;690;;DEF;0;0;0;0;0;0.95;1;0;
  547;C;C_M50100;691;;DEF;0.723721;0.618041;0.376558;0.853977;0;0.95;1;0;
  548;C;C_M50102;692;;DEF;0.205944;0.175871;0.107154;0.853977;0;0.95;1;0;
  549;C;C_M50106;693;;DEF;0.750988;0.641324;0.390750;0.853974;0;0.95;1;0;
  550;C;C_M50111;694;;DEF;1.100284;0.939608;0.572504;0.853968;0;0.95;1;0;
  551;C;C_M50122;695;;DEF;0.436686;0.372918;0.227216;0.853972;0;0.95;1;0;
  552;C;C_M50123;696;;DEF;0.499326;0.492607;0.081637;0.986544;0;0.95;1;0;
  553;C;C_M50129;697;;DEF;0.036923;0.031531;0.019212;0.853969;0;0.95;1;0;
  554;C;C_M50134;698;;DEF;0;0;0;0;0;0.95;1;0;
  555;C;C_M50135;699;;DEF;0.010315;0.010176;0.001688;0.986511;0;0.95;1;0;
  556;C;C_M50138;700;;DEF;0.335281;0.286321;0.174452;0.853974;0;0.95;1;0;
  557;C;C_M50139;701;;DEF;0;0;0;0;0;0.95;1;0;
  558;C;C_M50141;702;;DEF;0;0;0;0;0;0.95;1;0;
  559;C;C_M50144;703;;DEF;0.009009;0.008887;0.001474;0.986510;0;0.95;1;0;
  560;C;C_M50145;704;;DEF;0.071059;0.070101;0.011630;0.986515;0;0.95;1;0;
  561;C;C_M50146;705;;DEF;0.249434;0.213011;0.129784;0.853976;0;0.95;1;0;
  562;C;C_M50149;706;;DEF;0.403580;0.344649;0.209986;0.853977;0;0.95;1;0;
  563;C;C_M50150;707;;DEF;0.600783;0.592699;0.098225;0.986544;0;0.95;1;0;
  564;C;C_M50153;708;;DEF;0;0;0;0;0;0.95;1;0;
  565;C;C_M50154;709;;DEF;0;0;0;0;0;0.95;1;0;
  566;C;C_M50156;710;;DEF;0.559275;0.477604;0.291004;0.853968;0;0.95;1;0;
  567;C;C_M50157;711;;DEF;0.445951;0.380829;0.232039;0.853969;0;0.95;1;0;
  568;C;C_M50162;712;;DEF;0.369027;0.364061;0.060339;0.986541;0;0.95;1;0;
  569;C;C_M50163;713;;DEF;0;0;0;0;0;0.95;1;0;
  570;C;C_M50169;714;;DEF;0.051878;0.044302;0.026993;0.853972;0;0.95;1;0;
  571;C;C_M50171;715;;DEF;0;0;0;0;0;0.95;1;0;
  572;C;C_M50172;716;;DEF;0.32228;0.317942;0.052696;0.986541;0;0.95;1;0;
  573;C;C_M50173;717;;DEF;0.056429;0.055670;0.009229;0.986533;0;0.95;1;0;
  574;C;C_M50174;718;;DEF;0;0;0;0;0;0.95;1;0;
  575;C;C_M50175;719;;DEF;0.276841;0.273115;0.045264;0.986542;0;0.95;1;0;
  576;C;C_M50176;720;;DEF;0.118574;0.116978;0.019392;0.986536;0;0.95;1;0;
  577;C;C_M50179;721;;DEF;0;0;0;0;0;0.95;1;0;
  578;C;C_M50180;722;;DEF;0.313021;0.267311;0.162869;0.853973;0;0.95;1;0;
  579;C;C_M50184;723;;DEF;0.340697;0.290946;0.177270;0.853972;0;0.95;1;0;
  580;C;C_M50185;724;;DEF;0;0;0;0;0;0.95;1;0;
  581;C;C_M50188;725;;DEF;0.675382;0.666295;0.110418;0.986545;0;0.95;1;0;
  582;C;C_M50194;726;;DEF;0.018634;0.015912;0.009695;0.853968;0;0.95;1;0;
  583;C;C_M50195;727;;DEF;0.012907;0.012733;0.002112;0.986515;0;0.95;1;0;
  584;C;C_M50196;728;;DEF;0.021423;0.021135;0.003503;0.986539;0;0.95;1;0;
  585;C;C_M50197;729;;DEF;0;0;0;0;0;0.95;1;0;
  586;C;C_M50200;730;;DEF;0.474751;0.405427;0.247018;0.853977;0;0.95;1;0;
  587;C;C_M50201;731;;DEF;0.010380;0.010240;0.001699;0.986515;0;0.95;1;0;
  588;C;C_M50202;732;;DEF;0;0;0;0;0;0.95;1;0;
  589;C;C_M50209;733;;DEF;0;0;0;0;0;0.95;1;0;
  590;C;C_M50210;734;;DEF;0;0;0;0;0;0.95;1;0;
  591;C;C_M50225;735;;DEF;0.124331;0.122658;0.020326;0.986545;0;0.95;1;0;
  592;C;C_M50226;736;;DEF;0.006813;0.006721;0.001115;0.986515;0;0.95;1;0;
  593;C;C_M50244;737;;DEF;0;0;0;0;0;0.95;1;0;
  594;C;C_M50246;738;;DEF;0.119073;0.101684;0.061958;0.853963;0;0.95;1;0;
  595;C;C_M50247;739;;DEF;0;0;0;0;0;0.95;1;0;
  596;C;C_M50249;740;;DEF;0;0;0;0;0;0.95;1;0;
  597;C;C_M50251;741;;DEF;0;0;0;0;0;0.95;1;0;
  598;C;C_M50253;742;;DEF;0;0;0;0;0;0.95;1;0;
  599;C;C_M50259;743;;DEF;0;0;0;0;0;0.95;1;0;
  600;C;C_M50261;744;;DEF;0.160650;0.137189;0.083592;0.853963;0;0.95;1;0;
  601;C;C_M50262;745;;DEF;0.007830;0.006686;0.004074;0.853973;0;0.95;1;0;
  602;C;C_M50276;746;;DEF;0.322565;0.318215;0.052794;0.986515;0;0.95;1;0;
  603;C;C_M50280;747;;DEF;0.100460;0.099108;0.016425;0.986543;0;0.95;1;0;
  604;C;C_M50289;748;;DEF;0.066773;0.057023;0.034743;0.853975;0;0.95;1;0;
  605;C;C_M50290;749;;DEF;0.237390;0.234196;0.038808;0.986546;0;0.95;1;0;
  606;C;C_M50292;750;;DEF;0;0;0;0;0;0.95;1;0;
  607;C;C_M50293;751;;DEF;1.759205;1.502313;0.915344;0.853972;0;0.95;1;0;
  608;C;C_M50294;752;;DEF;0.404551;0.345477;0.210493;0.853975;0;0.95;1;0;
  609;C;C_M50295;753;;DEF;0.105110;0.103694;0.017194;0.986528;0;0.95;1;0;
  610;C;C_M50296;754;;DEF;0.019566;0.016708;0.010180;0.853976;0;0.95;1;0;
  611;C;C_M50297;755;;DEF;0.089535;0.088330;0.014639;0.986542;0;0.95;1;0;
  612;C;C_M50299;756;;DEF;0;0;0;0;0;0.95;1;0;
  613;C;C_M50300;757;;DEF;0.018713;0.015980;0.009736;0.853975;0;0.95;1;0;
  614;C;C_M50301;758;;DEF;0.550628;0.543215;0.090050;0.986536;0;0.95;1;0;
  615;C;C_M50302;759;;DEF;0.169608;0.167323;0.027743;0.986530;0;0.95;1;0;
  616;C;C_M50304;760;;DEF;0.397856;0.392504;0.065038;0.986547;0;0.95;1;0;
  617;C;C_M50307;761;;DEF;0.185996;0.183494;0.030405;0.986547;0;0.95;1;0;
  618;C;C_M50308;762;;DEF;0.016965;0.014488;0.008827;0.853969;0;0.95;1;0;
  619;C;C_M50309;763;;DEF;0.170162;0.145314;0.088537;0.853974;0;0.95;1;0;
  620;C;C_M50310;764;;DEF;0.706229;0.696724;0.115474;0.986542;0;0.95;1;0;
  621;C;C_M50311;765;;DEF;0.159925;0.157773;0.026149;0.986542;0;0.95;1;0;
  622;C;C_M50312;766;;DEF;0.330235;0.325791;0.053996;0.986541;0;0.95;1;0;
  623;C;C_M50313;767;;DEF;0.068694;0.067770;0.011232;0.986541;0;0.95;1;0;
  624;C;C_M50314;768;;DEF;0.618589;0.528260;0.321858;0.853976;0;0.95;1;0;
  625;C;C_M50315;769;;DEF;0.321666;0.274695;0.167367;0.853976;0;0.95;1;0;
  626;C;C_SE50033;770;;DEF;0.076640;0.065448;0.039877;0.85397;0;0.95;1;0;
  627;C;C_SE50049;771;;DEF;0.018241;0.017995;0.002986;0.986506;0;0.95;1;0;
  628;C;C_SE50033;772;;DEF;0.076640;0.065448;0.039877;0.85397;0;0.95;1;0;
  629;C;C_SE50070;773;;DEF;0.019762;0.019495;0.003235;0.986506;0;0.95;1;0;
  630;C;C_SE50075;774;;DEF;0.034958;0.034487;0.005721;0.986515;0;0.95;1;0;
  631;C;C_SE50076;775;;DEF;0.033666;0.033212;0.005510;0.986515;0;0.95;1;0;
  632;C;C_SE50077;776;;DEF;0.093816;0.092550;0.015354;0.986515;0;0.95;1;0;
  633;C;C_SE50078;777;;DEF;0.046799;0.046168;0.007659;0.986515;0;0.95;1;0;
  634;C;C_SE50079;778;;DEF;0;0;0;0;0;0.95;1;0;
  635;C;C_SE50080;779;;DEF;0.006673;0.005698;0.003472;0.853969;0;0.95;1;0;
  636;C;C_SE50081;780;;DEF;0;0;0;0;0;0.95;1;0;
  637;C;C_SE50082;781;;DEF;0.007208;0.007111;0.001178;0.986536;0;0.95;1;0;
  638;C;C_SE50083;782;;DEF;0.010579;0.010436;0.001730;0.986537;0;0.95;1;0;
  639;C;C_SE50084;783;;DEF;0.018962;0.018706;0.003101;0.986535;0;0.95;1;0;
  640;C;C_SE50085;784;;DEF;0.013095;0.012919;0.002141;0.986537;0;0.95;1;0;
  641;C;C_SE50086;785;;DEF;0.029960;0.025585;0.015589;0.853977;0;0.95;1;0;
  642;C;C_SE50087;786;;DEF;0.021787;0.018605;0.011336;0.853976;0;0.95;1;0;
  643;C;C_SE50088;787;;DEF;0.014422;0.012316;0.007504;0.853972;0;0.95;1;0;
  644;C;C_SE50089;788;;DEF;0;0;0;0;0;0.95;1;0;
  645;C;C_SE50090;789;;DEF;0;0;0;0;0;0.95;1;0;
  646;C;C_SE50091;790;;DEF;0.012837;0.010962;0.006679;0.853967;0;0.95;1;0;
  647;C;C_SE50092;791;;DEF;0.015719;0.013424;0.008179;0.853967;0;0.95;1;0;
  648;C;C_SE50093;792;;DEF;0.005954;0.005084;0.003098;0.853965;0;0.95;1;0;
  649;C;C_SE50094;793;;DEF;0.010239;0.008744;0.005328;0.853965;0;0.95;1;0;
  650;C;C_SE50095;794;;DEF;0;0;0;0;0;0.95;1;0;
  651;C;C_SE50096;795;;DEF;0.010525;0.008988;0.005476;0.853962;0;0.95;1;0;
  652;C;C_SE50108;796;;DEF;0;0;0;0;0;0.95;1;0;
  653;C;C_SE50110;797;;DEF;0.014232;0.014040;0.002330;0.986504;0;0.95;1;0;
  654;C;C_SE50126;798;;DEF;0;0;0;0;0;0.95;1;0;
  655;C;C_SE50132;799;;DEF;0.019762;0.019495;0.003235;0.986506;0;0.95;1;0;
  656;C;C_SE50167;800;;DEF;0.037532;0.032051;0.019528;0.853968;0;0.95;1;0;
  657;C;C_SE50178;801;;DEF;0.038178;0.032603;0.019864;0.853977;0;0.95;1;0;
  658;C;C_SE50187;802;;DEF;0;0;0;0;0;0.95;1;0;
  659;C;C_SE50243;803;;DEF;0.023315;0.023001;0.003815;0.986520;0;0.95;1;0;
  660;C;C_SE50249;804;;DEF;0.007007;0.006912;0.001146;0.986515;0;0.95;1;0;
  661;C;C_SE50250;805;;DEF;0;0;0;0;0;0.95;1;0;
  662;C;C_SE50254;806;;DEF;0;0;0;0;0;0.95;1;0;
  663;C;C_SE50255;807;;DEF;0;0;0;0;0;0.95;1;0;
  664;C;C_SE50256;808;;DEF;0;0;0;0;0;0.95;1;0;
  665;C;C_SE50265;809;;DEF;0;0;0;0;0;0.95;1;0;
  666;C;C_SE50266;810;;DEF;0;0;0;0;0;0.95;1;0;
  667;C;C_SE50267;811;;DEF;0;0;0;0;0;0.95;1;0;
  668;C;C_SE50268;812;;DEF;0;0;0;0;0;0.95;1;0;
  669;C;C_SE50269;813;;DEF;0;0;0;0;0;0.95;1;0;
  670;C;C_SE50271;814;;DEF;0;0;0;0;0;0.95;1;0;
  671;C;C_SE50272;815;;DEF;0;0;0;0;0;0.95;1;0;
  672;C;C_SE50288;816;;DEF;0;0;0;0;0;0.95;1;0;
  673;C;C_SE50290-6;817;;DEF;0;0;0;0;0;0.95;1;0;
  674;C;C_SE50299;818;;DEF;0.016059;0.013714;0.008356;0.853969;0;0.95;1;0;
  675;C;C_SE50318;819;;DEF;0;0;0;0;0;0.95;1;0;
  676;C;C_SE50320;820;;DEF;0;0;0;0;0;0.95;1;0;
  677;C;SU PLANTA CHANCADORA NASCA_SR PINO B.;NA203;;PC;0.126041;0.121;0.035291;0.96;0;1;1;0;
  678;C;SU Predio del Sr. Lorenzo Muriel Ttito;NA203;;PC;0.040625;0.039;0.011375;0.96;0;1;1;0;
  679;C;Taller de reparaciones de equipos;NA203;;PC;0.244000;0.234240;0.068320;0.96;0;1;1;0;
  680;C;VICTORIA AGROEXPORTACIONES;NA203;;PC;0.052619;0.050514;0.014733;0.96;0;1;1;0;
  681;C;Yuracmayo;NA203;;PC;0.649083;0.62312;0.181743;0.96;0;1;1;0;


$$ElmNet;FID(a:40);OP(a:1);loc_name(a:40);fold_id(p);frnom(r);pDiagram(p)
  NA203;C;NA203;;60;


$$ElmShnt;FID(a:40);OP(a:1);loc_name(a:40);fold_id(p);systp(i);ctech(i);shtype(i);ushnm(r);mode_inp(a:3);qcapn(r);ncapx(i);ncapa(i);outserv(i);qrean(r);qtotn(r);tandc(r);fres(r);greaf0(r);grea(r);bcap(r);xrea(r);rrea(r);gparac(r);iswitch(i);imldc(a:2);usetp_mx(r);usetp_mn(r);qsetp_mx(r);qsetp_mn(r);iQorient(i);ilcph(i)
  682;C;BC_3613;NA203;0;1;2;22.9;DEF;0.45;1;1;0;0;0.45;0;0;0;0;858.1072;1.5;0;0;0;V;1.05;0.95;0;0;0;0
  683;C;BC_700649;NA203;0;1;2;22.9;DEF;0.45;1;1;0;0;0.45;0;0;0;0;858.1072;1.5;0;0;0;V;1.05;0.95;0;0;0;0
  684;C;BC_851821;NA203;0;1;2;22.9;DEF;0.45;1;1;0;0;0.45;0;0;0;0;858.1072;1.5;0;0;0;V;1.05;0.95;0;0;0;0
  685;C;BC_950053(1);NA203;0;1;2;22.9;DEF;0.45;1;1;0;0;0.45;0;0;0;0;858.1072;1.5;0;0;0;V;1.05;0.95;0;0;0;0
  686;C;BC_950053;NA203;0;1;2;22.9;DEF;0.45;1;1;0;0;0.45;0;0;0;0;858.1072;1.5;0;0;0;V;1.05;0.95;0;0;0;0
  687;C;BC_950057;NA203;0;1;2;22.9;DEF;0.45;1;1;0;0;0.45;0;0;0;0;858.1072;1.5;0;0;0;V;1.05;0.95;0;0;0;0
  688;C;BC_950058(1);NA203;0;1;2;22.9;DEF;0.45;1;1;0;0;0.45;0;0;0;0;858.1072;1.5;0;0;0;V;1.05;0.95;0;0;0;0
  689;C;BC_950059;NA203;0;1;2;22.9;DEF;0.45;1;1;0;0;0.45;0;0;0;0;858.1072;1.5;0;0;0;V;1.05;0.95;0;0;0;0


$$ElmSubstat;FID(a:40);OP(a:1);loc_name(a:40);fold_id(p);sShort(a:6);sType(a:80);GPSlat(r);GPSlon(r)
  690;C;SE_M50099;NA203;T;;-14.97148;-74.98134
  691;C;SE_M50100;NA203;T;;-14.97319;-74.97607
  692;C;SE_M50102;NA203;T;;-14.97131;-74.98244
  693;C;SE_M50106;NA203;T;;-14.94249;-74.98662
  694;C;SE_M50111;NA203;T;;-14.85797;-74.97121
  695;C;SE_M50122;NA203;T;;-14.97287;-74.93903
  696;C;SE_M50123;NA203;T;;-14.94885;-74.98712
  697;C;SE_M50129;NA203;T;;-14.85797;-74.97121
  698;C;SE_M50134;NA203;T;;-14.85797;-74.97121
  699;C;SE_M50135;NA203;T;;-14.85834;-74.97208
  700;C;SE_M50138;NA203;T;;-14.94382;-74.98657
  701;C;SE_M50139;NA203;T;;-14.85797;-74.97121
  702;C;SE_M50141;NA203;T;;-14.85797;-74.97121
  703;C;SE_M50144;NA203;T;;-14.85797;-74.97121
  704;C;SE_M50145;NA203;T;;-14.86422;-74.97677
  705;C;SE_M50146;NA203;T;;-14.95814;-74.98584
  706;C;SE_M50149;NA203;T;;-14.97181;-74.97906
  707;C;SE_M50150;NA203;T;;-14.94676;-74.98725
  708;C;SE_M50153;NA203;T;;-14.93623;-74.98759
  709;C;SE_M50154;NA203;T;;-14.87281;-74.98648
  710;C;SE_M50156;NA203;T;;-14.97056;-74.90595
  711;C;SE_M50157;NA203;T;;-14.90473;-74.98389
  712;C;SE_M50162;NA203;T;;-14.92947;-74.98804
  713;C;SE_M50163;NA203;T;;-14.87127;-74.97842
  714;C;SE_M50169;NA203;T;;-14.97172;-74.93328
  715;C;SE_M50171;NA203;T;;-14.95307;-74.98643
  716;C;SE_M50172;NA203;T;;-14.92859;-74.98793
  717;C;SE_M50173;NA203;T;;-14.90631;-74.98482
  718;C;SE_M50174;NA203;T;;-14.94756;-74.98692
  719;C;SE_M50175;NA203;T;;-14.93743;-74.98742
  720;C;SE_M50176;NA203;T;;-14.90885;-74.99959
  721;C;SE_M50179;NA203;T;;-14.93296;-74.98701
  722;C;SE_M50180;NA203;T;;-14.93673;-74.98698
  723;C;SE_M50184;NA203;T;;-14.93145;-74.98787
  724;C;SE_M50185;NA203;T;;-14.87219;-74.9902
  725;C;SE_M50188;NA203;T;;-14.96376;-74.98589
  726;C;SE_M50194;NA203;T;;-14.85797;-74.97121
  727;C;SE_M50195;NA203;T;;-14.86603;-74.9819
  728;C;SE_M50196;NA203;T;;-14.92065;-74.99679
  729;C;SE_M50197;NA203;T;;-14.92391;-74.99741
  730;C;SE_M50200;NA203;T;;-14.9712;-74.98298
  731;C;SE_M50201;NA203;T;;-14.87291;-74.98672
  732;C;SE_M50202;NA203;T;;-14.93804;-74.98683
  733;C;SE_M50209;NA203;T;;-14.87379;-74.97908
  734;C;SE_M50210;NA203;T;;-14.90775;-74.95725
  735;C;SE_M50225;NA203;T;;-14.91497;-75.04936
  736;C;SE_M50226;NA203;T;;-14.8659;-74.97993
  737;C;SE_M50244;NA203;T;;-14.88199;-74.98086
  738;C;SE_M50246;NA203;T;;-14.97497;-74.84993
  739;C;SE_M50247;NA203;T;;-14.97451;-74.85406
  740;C;SE_M50249;NA203;T;;-14.86585;-74.97979
  741;C;SE_M50251;NA203;T;;-14.92874;-74.98783
  742;C;SE_M50253;NA203;T;;-14.85797;-74.97121
  743;C;SE_M50259;NA203;T;;-14.90583;-74.96908
  744;C;SE_M50261;NA203;T;;-14.97609;-74.83882
  745;C;SE_M50262;NA203;T;;-14.93321;-74.98747
  746;C;SE_M50276;NA203;T;;-14.86651;-74.98244
  747;C;SE_M50280;NA203;T;;-14.92047;-75.03031
  748;C;SE_M50289;NA203;T;;-14.94021;-74.95852
  749;C;SE_M50290;NA203;T;;-14.90757;-75.06996
  750;C;SE_M50292;NA203;T;;-14.8715;-74.98792
  751;C;SE_M50293;NA203;T;;-14.93802;-74.95137
  752;C;SE_M50294;NA203;T;;-14.94286;-74.96536
  753;C;SE_M50295;NA203;T;;-14.89412;-74.98247
  754;C;SE_M50296;NA203;T;;-14.94297;-74.96635
  755;C;SE_M50297;NA203;T;;-14.92342;-75.02374
  756;C;SE_M50299;NA203;T;;-14.90463;-74.98407
  757;C;SE_M50300;NA203;T;;-14.93955;-74.95586
  758;C;SE_M50301;NA203;T;;-14.90747;-74.99928
  759;C;SE_M50302;NA203;T;;-14.89968;-74.98338
  760;C;SE_M50304;NA203;T;;-14.90742;-75.06999
  761;C;SE_M50307;NA203;T;;-14.90744;-75.06981
  762;C;SE_M50308;NA203;T;;-14.91014;-74.92168
  763;C;SE_M50309;NA203;T;;-14.93963;-74.95567
  764;C;SE_M50310;NA203;T;;-14.93147;-74.98831
  765;C;SE_M50311;NA203;T;;-14.93057;-74.99903
  766;C;SE_M50312;NA203;T;;-14.9307;-74.99911
  767;C;SE_M50313;NA203;T;;-14.92982;-74.9961
  768;C;SE_M50314;NA203;T;;-14.9445;-74.97015
  769;C;SE_M50315;NA203;T;;-14.94511;-74.97528
  770;C;SE_SE50033;NA203;T;;-14.8506;-74.95619
  771;C;SE_SE50049;NA203;D;;-14.85233;-74.95975
  772;C;SE_SE50064;NA203;D;;-14.85129;-74.95649
  773;C;SE_SE50070;NA203;D;;-14.85285;-74.962
  774;C;SE_SE50075;NA203;D;;-14.8654;-74.97829
  775;C;SE_SE50076;NA203;D;;-14.86768;-74.98164
  776;C;SE_SE50077;NA203;D;;-14.87051;-74.98419
  777;C;SE_SE50078;NA203;D;;-14.87257;-74.98669
  778;C;SE_SE50079;NA203;D;;-14.91569;-74.94949
  779;C;SE_SE50080;NA203;D;;-14.91021;-74.92104
  780;C;SE_SE50081;NA203;D;;-14.90973;-75.00186
  781;C;SE_SE50082;NA203;D;;-14.91187;-75.00057
  782;C;SE_SE50083;NA203;D;;-14.9127;-75.00113
  783;C;SE_SE50084;NA203;D;;-14.91298;-74.98625
  784;C;SE_SE50085;NA203;D;;-14.91367;-74.98566
  785;C;SE_SE50086;NA203;D;;-14.97819;-74.98761
  786;C;SE_SE50087;NA203;D;;-14.98115;-74.96275
  787;C;SE_SE50088;NA203;D;;-14.97188;-74.9332
  788;C;SE_SE50089;NA203;D;;-14.97248;-74.93073
  789;C;SE_SE50090;NA203;D;;-14.98253;-74.89716
  790;C;SE_SE50091;NA203;D;;-14.97364;-74.89265
  791;C;SE_SE50092;NA203;D;;-14.97359;-74.89096
  792;C;SE_SE50093;NA203;D;;-14.96898;-74.87106
  793;C;SE_SE50094;NA203;D;;-14.97208;-74.86999
  794;C;SE_SE50095;NA203;D;;-14.97138;-74.83331
  795;C;SE_SE50096;NA203;D;;-14.97264;-74.82565
  796;C;SE_SE50108;NA203;T;;-14.85173;-74.95847
  797;C;SE_SE50110;NA203;T;;-14.8506;-74.95619
  798;C;SE_SE50126;NA203;D;;-14.90878;-74.98121
  799;C;SE_SE50132;NA203;D;;-14.85285;-74.962
  800;C;SE_SE50167;NA203;D;;-14.87043;-74.9782
  801;C;SE_SE50178;NA203;T;;-14.97072;-74.98772
  802;C;SE_SE50187;NA203;D;;-14.85285;-74.962
  803;C;SE_SE50243;NA203;D;;-14.87517;-74.98214
  804;C;SE_SE50249;NA203;T;;-14.86457;-74.98063
  805;C;SE_SE50250;NA203;D;;-14.9765;-74.84198
  806;C;SE_SE50254;NA203;D;;-14.97329;-74.84507
  807;C;SE_SE50255;NA203;D;;-14.97563;-74.83655
  808;C;SE_SE50256;NA203;D;;-14.97738;-74.83324
  809;C;SE_SE50265;NA203;D;;-14.91131;-74.93761
  810;C;SE_SE50266;NA203;D;;-14.91763;-74.93793
  811;C;SE_SE50267;NA203;D;;-14.91975;-74.93759
  812;C;SE_SE50268;NA203;D;;-14.91779;-74.93444
  813;C;SE_SE50269;NA203;D;;-14.91966;-74.93243
  814;C;SE_SE50271;NA203;D;;-14.91548;-74.92827
  815;C;SE_SE50272;NA203;D;;-14.91783;-74.92847
  816;C;SE_SE50288;NA203;T;;-14.97469;-74.85097
  817;C;SE_SE50290-6;NA203;T;;-14.91115;-75.06213
  818;C;SE_SE50299;NA203;T;;-14.90477;-74.98358
  819;C;SE_SE50318;NA203;D;;-14.8715;-74.98334
  820;C;SE_SE50329;NA203;D;;-14.85233;-74.95975
  821;C;Substation;NA203;;;0;0


$$ElmSym;FID(a:40);OP(a:1);loc_name(a:40);fold_id(p);typ_id(p);cCategory(a);ngnum(i);i_mot(i);pgini(r);qgini(r);cosgini(r);usetp(r);pf_recap(i);q_min(r);q_max(r);outserv(i);av_mode(a);phtech(i)
  822;C;GENERADOR NASCA;NA203;6255;Gas;1;0;9;2.625;0.96;1.04;0;-1;1;0;constv;1


$$ElmTerm;FID(a:40);OP(a:1);loc_name(a:40);fold_id(p);typ_id(p);systype(i);iUsage(i);uknom(r);unknom(r);iminus(i);outserv(i);GPSlat(r);GPSlon(r);vtarget(r)
  823;C;13636P;NA203;;0;1;22.9;13.22132;0;0;-14.85231;-74.95966;1
  824;C;14129P;NA203;;0;1;22.9;13.22132;0;0;-14.85803;-74.97117;1
  825;C;16428P;NA203;;0;1;22.9;13.22132;0;0;-14.85107;-74.95607;1
  826;C;16484P;NA203;;0;1;22.9;13.22132;0;0;-14.8722;-74.98702;1
  827;C;19193P;NA203;;0;1;22.9;13.22132;0;0;-14.85321;-74.96171;1
  828;C;19411P;NA203;;0;1;22.9;13.22132;0;0;-14.97773;-74.98826;1
  829;C;19419P;NA203;;0;1;22.9;13.22132;0;0;-14.97216;-74.98666;1
  830;C;19420P;NA203;;0;1;22.9;13.22132;0;0;-14.97108;-74.98609;1
  831;C;19423;NA203;;0;1;22.9;13.22132;0;0;-14.97074;-74.9847;1
  832;C;19426P;NA203;;0;1;22.9;13.22132;0;0;-14.97123;-74.98129;1
  833;C;19427P;NA203;;0;1;22.9;13.22132;0;0;-14.97138;-74.98015;1
  834;C;19428P;NA203;;0;1;22.9;13.22132;0;0;-14.97155;-74.979;1
  835;C;19429P;NA203;;0;1;22.9;13.22132;0;0;-14.97171;-74.97786;1
  836;C;19444P;NA203;;0;1;22.9;13.22132;0;0;-14.97296;-74.96191;1
  837;C;19464;NA203;;0;1;22.9;13.22132;0;0;-14.97299;-74.93994;1
  838;C;19465;NA203;;0;1;22.9;13.22132;0;0;-14.9729;-74.93883;1
  839;C;19468;NA203;;0;1;22.9;13.22132;0;0;-14.97271;-74.93551;1
  840;C;19470;NA203;;0;1;22.9;13.22132;0;0;-14.97251;-74.93341;1
  841;C;19835P;NA203;;0;1;22.9;13.22132;0;0;-14.91016;-74.9216;1
  842;C;19836P;NA203;;0;1;22.9;13.22132;0;0;-14.91021;-74.92177;1
  843;C;19842P;NA203;;0;1;22.9;13.22132;0;0;-14.85413;-74.96387;1
  844;C;19843P;NA203;;0;1;22.9;13.22132;0;0;-14.91105;-74.92622;1
  845;C;19854P;NA203;;0;1;22.9;13.22132;0;0;-14.91113;-74.93822;1
  846;C;19864P;NA203;;0;1;22.9;13.22132;0;0;-14.91128;-74.94945;1
  847;C;19865P;NA203;;0;1;22.9;13.22132;0;0;-14.91179;-74.9495;1
  848;C;19868P;NA203;;0;1;22.9;13.22132;0;0;-14.91485;-74.9494;1
  849;C;19870P;NA203;;0;1;22.9;13.22132;0;0;-14.91114;-74.9496;1
  850;C;19882P;NA203;;0;1;22.9;13.22132;0;0;-14.9076;-74.95728;1
  851;C;19893P;NA203;;0;1;22.9;13.22132;0;0;-14.90577;-74.96929;1
  852;C;19900;NA203;;0;1;22.9;13.22132;0;0;-14.84941;-74.95283;1
  853;C;19916P(1);NA203;;0;1;22.9;13.22132;0;0;-14.85832;-74.97186;1
  854;C;19916P;NA203;;0;1;22.9;13.22132;0;0;-14.85832;-74.97186;1
  855;C;19923P(1);NA203;;0;1;22.9;13.22132;0;0;-14.86054;-74.97492;1
  856;C;19923P;NA203;;0;1;22.9;13.22132;0;0;-14.86054;-74.97492;1
  857;C;19931P;NA203;;0;1;22.9;13.22132;0;0;-14.86395;-74.97654;1
  858;C;19934P;NA203;;0;1;22.9;13.22132;0;0;-14.86436;-74.97666;1
  859;C;19935P;NA203;;0;1;22.9;13.22132;0;0;-14.86448;-74.97708;1
  860;C;19937P;NA203;;0;1;22.9;13.22132;0;0;-14.86518;-74.9782;1
  861;C;19940P;NA203;;0;1;22.9;13.22132;0;0;-14.86596;-74.97955;1
  862;C;19941P;NA203;;0;1;22.9;13.22132;0;0;-14.86618;-74.97988;1
  863;C;19944P;NA203;;0;1;22.9;13.22132;0;0;-14.86717;-74.98102;1
  864;C;19950P;NA203;;0;1;22.9;13.22132;0;0;-14.87027;-74.98476;1
  865;C;19955P;NA203;;0;1;22.9;13.22132;0;0;-14.87232;-74.98724;1
  866;C;19983P;NA203;;0;1;22.9;13.22132;0;0;-14.8837;-74.98081;1
  867;C;19996P;NA203;;0;1;22.9;13.22132;0;0;-14.89415;-74.9823;1
  868;C;20007P;NA203;;0;1;22.9;13.22132;0;0;-14.9024;-74.98344;1
  869;C;20010P;NA203;;0;1;22.9;13.22132;0;0;-14.91122;-74.98525;1
  870;C;20011;NA203;;0;1;22.9;13.22132;0;0;-14.91111;-74.98556;1
  871;C;20013P;NA203;;0;1;22.9;13.22132;0;0;-14.9108;-74.98616;1
  872;C;20027;NA203;;0;1;22.9;13.22132;0;0;-14.90763;-74.99934;1
  873;C;20028P;NA203;;0;1;22.9;13.22132;0;0;-14.90846;-74.99966;1
  874;C;20030P;NA203;;0;1;22.9;13.22132;0;0;-14.91017;-75.00037;1
  875;C;20039;NA203;;0;1;22.9;13.22132;0;0;-14.911;-74.98618;1
  876;C;20042P;NA203;;0;1;22.9;13.22132;0;0;-14.97339;-74.96187;1
  877;C;20051;NA203;;0;1;22.9;13.22132;0;0;-14.96575;-74.89056;1
  878;C;20059;NA203;;0;1;22.9;13.22132;0;0;-14.97361;-74.89082;1
  879;C;20101;NA203;;0;1;22.9;13.22132;0;0;-14.97084;-74.90614;1
  880;C;20102;NA203;;0;1;22.9;13.22132;0;0;-14.97083;-74.90485;1
  881;C;20117;NA203;;0;1;22.9;13.22132;0;0;-14.96557;-74.89041;1
  882;C;20136P;NA203;;0;1;22.9;13.22132;0;0;-14.96918;-74.871;1
  883;C;20137;NA203;;0;1;22.9;13.22132;0;0;-14.96922;-74.87081;1
  884;C;20140P;NA203;;0;1;22.9;13.22132;0;0;-14.97209;-74.87029;1
  885;C;20159;NA203;;0;1;22.9;13.22132;0;0;-14.97459;-74.85401;1
  886;C;20162;NA203;;0;1;22.9;13.22132;0;0;-14.9748;-74.85105;1
  887;C;20163;NA203;;0;1;22.9;13.22132;0;0;-14.97489;-74.84972;1
  888;C;20168;NA203;;0;1;22.9;13.22132;0;0;-14.97526;-74.84433;1
  889;C;20171;NA203;;0;1;22.9;13.22132;0;0;-14.97558;-74.84195;1
  890;C;20174;NA203;;0;1;22.9;13.22132;0;0;-14.97598;-74.83852;1
  891;C;20176;NA203;;0;1;22.9;13.22132;0;0;-14.9757;-74.83639;1
  892;C;20178;NA203;;0;1;22.9;13.22132;0;0;-14.97521;-74.83465;1
  893;C;20185;NA203;;0;1;22.9;13.22132;0;0;-14.97159;-74.83321;1
  894;C;20192;NA203;;0;1;22.9;13.22132;0;0;-14.97241;-74.82706;1
  895;C;20203P;NA203;;0;1;22.9;13.22132;0;0;-14.89965;-74.9831;1
  896;C;20206P;NA203;;0;1;22.9;13.22132;0;0;-14.90216;-74.98357;1
  897;C;20209P;NA203;;0;1;22.9;13.22132;0;0;-14.90476;-74.98405;1
  898;C;20212P;NA203;;0;1;22.9;13.22132;0;0;-14.90648;-74.98449;1
  899;C;20214P;NA203;;0;1;22.9;13.22132;0;0;-14.90822;-74.98479;1
  900;C;20218;NA203;;0;1;22.9;13.22132;0;0;-14.91114;-74.98521;1
  901;C;20223;NA203;;0;1;22.9;13.22132;0;0;-14.9137;-74.98528;1
  902;C;20229;NA203;;0;1;22.9;13.22132;0;0;-14.9177;-74.98659;1
  903;C;20230;NA203;;0;1;22.9;13.22132;0;0;-14.91861;-74.98672;1
  904;C;20241P;NA203;;0;1;22.9;13.22132;0;0;-14.9278;-74.98769;1
  905;C;20242P;NA203;;0;1;22.9;13.22132;0;0;-14.92867;-74.98785;1
  906;C;20245;NA203;;0;1;22.9;13.22132;0;0;-14.93133;-74.98798;1
  907;C;20247;NA203;;0;1;22.9;13.22132;0;0;-14.93311;-74.98768;1
  908;C;20251P;NA203;;0;1;22.9;13.22132;0;0;-14.93667;-74.9871;1
  909;C;20252;NA203;;0;1;22.9;13.22132;0;0;-14.93756;-74.98694;1
  910;C;20255P;NA203;;0;1;22.9;13.22132;0;0;-14.94025;-74.98685;1
  911;C;20258P;NA203;;0;1;22.9;13.22132;0;0;-14.94312;-74.98676;1
  912;C;20259P;NA203;;0;1;22.9;13.22132;0;0;-14.94393;-74.98668;1
  913;C;20265P;NA203;;0;1;22.9;13.22132;0;0;-14.949;-74.98701;1
  914;C;20266P;NA203;;0;1;22.9;13.22132;0;0;-14.94968;-74.98697;1
  915;C;20269P;NA203;;0;1;22.9;13.22132;0;0;-14.9522;-74.98673;1
  916;C;20270;NA203;;0;1;22.9;13.22132;0;0;-14.95308;-74.98666;1
  917;C;20277P;NA203;;0;1;22.9;13.22132;0;0;-14.95839;-74.98599;1
  918;C;20282P;NA203;;0;1;22.9;13.22132;0;0;-14.96186;-74.98537;1
  919;C;20284;NA203;;0;1;22.9;13.22132;0;0;-14.96378;-74.9854;1
  920;C;22408P;NA203;;0;1;22.9;13.22132;0;0;-14.97061;-74.986;1
  921;C;2336522;NA203;;0;1;22.9;13.22132;0;0;-14.84981;-74.9529;1
  922;C;41409;NA203;;0;1;22.9;13.22132;0;0;-14.9042;-74.9845;1
  923;C;51471;NA203;;0;1;22.9;13.22132;0;0;-14.93305;-74.98738;1
  924;C;51481;NA203;;0;1;22.9;13.22132;0;0;-14.9719;-74.98698;1
  925;C;51605;NA203;;0;1;22.9;13.22132;0;0;-14.97099;-74.98296;1
  926;C;52348;NA203;;0;1;22.9;13.22132;0;0;-14.87129;-74.98792;1
  927;C;52349;NA203;;0;1;22.9;13.22132;0;0;-14.87104;-74.98814;1
  928;C;52352;NA203;;0;1;22.9;13.22132;0;0;-14.87237;-74.99004;1
  929;C;580202620;NA203;;0;1;22.9;13.22132;0;0;-14.92152;-74.99682;1
  930;C;580202829;NA203;;0;1;22.9;13.22132;0;0;-14.97168;-74.85474;1
  931;C;580203000;NA203;;0;1;22.9;13.22132;0;0;-14.86489;-74.98051;1
  932;C;580203187;NA203;;0;1;22.9;13.22132;0;0;-14.97564;-74.84203;1
  933;C;580203790;NA203;;0;1;22.9;13.22132;0;0;-14.97505;-74.84457;1
  934;C;580211359;NA203;;0;1;22.9;13.22132;0;0;-14.91131;-74.93795;1
  935;C;580211370;NA203;;0;1;22.9;13.22132;0;0;-14.91799;-74.93638;1
  936;C;580211371;NA203;;0;1;22.9;13.22132;0;0;-14.91804;-74.93727;1
  937;C;580211389;NA203;;0;1;22.9;13.22132;0;0;-14.9111;-74.92608;1
  938;C;580211394;NA203;;0;1;22.9;13.22132;0;0;-14.91509;-74.92662;1
  939;C;580214992;NA203;;0;1;22.9;13.22132;0;0;-14.86669;-74.98259;1
  940;C;580222134;NA203;;0;1;22.9;13.22132;0;0;-14.92439;-74.99721;1
  941;C;580222135;NA203;;0;1;22.9;13.22132;0;0;-14.92387;-74.99738;1
  942;C;580226725;NA203;;0;1;22.9;13.22132;0;0;-14.97471;-74.85102;1
  943;C;580226978;NA203;;0;1;22.9;13.22132;0;0;-14.94443;-74.98696;1
  944;C;580226979;NA203;;0;1;22.9;13.22132;0;0;-14.9444;-74.98685;1
  945;C;580226980;NA203;;0;1;22.9;13.22132;0;0;-14.94433;-74.98672;1
  946;C;580227004;NA203;;0;1;22.9;13.22132;0;0;-14.94449;-74.97034;1
  947;C;580227011;NA203;;0;1;22.9;13.22132;0;0;-14.94283;-74.96577;1
  948;C;580227022;NA203;;0;1;22.9;13.22132;0;0;-14.94037;-74.95863;1
  949;C;580228655;NA203;;0;1;22.9;13.22132;0;0;-14.91519;-75.04937;1
  950;C;580228672;NA203;;0;1;22.9;13.22132;0;0;-14.90933;-75.06256;1
  951;C;580228675;NA203;;0;1;22.9;13.22132;0;0;-14.90922;-75.06467;1
  952;C;580228676;NA203;;0;1;22.9;13.22132;0;0;-14.90895;-75.06473;1
  953;C;580228682;NA203;;0;1;22.9;13.22132;0;0;-14.90778;-75.06953;1
  954;C;580230153;NA203;;0;1;22.9;13.22132;0;0;-14.94277;-74.9655;1
  955;C;580230361;NA203;;0;1;22.9;13.22132;0;0;-14.93947;-74.95605;1
  956;C;580230362;NA203;;0;1;22.9;13.22132;0;0;-14.93946;-74.95552;1
  957;C;580230367;NA203;;0;1;22.9;13.22132;0;0;-14.93823;-74.952;1
  958;C;580231294;NA203;;0;1;22.9;13.22132;0;0;-14.90957;-75.06286;1
  959;C;580233334;NA203;;0;1;22.9;13.22132;0;0;-14.90757;-75.06977;1
  960;C;580233395;NA203;;0;1;22.9;13.22132;0;0;-14.91526;-75.04974;1
  961;C;580233396;NA203;;0;1;22.9;13.22132;0;0;-14.90771;-75.06969;1
  962;C;580234150;NA203;;0;1;22.9;13.22132;0;0;-14.94113;-74.98682;1
  963;C;580234151;NA203;;0;1;22.9;13.22132;0;0;-14.96289;-74.98539;1
  964;C;580235906;NA203;;0;1;22.9;13.22132;0;0;-14.84942;-74.95259;1
  965;C;580236048;NA203;;0;1;22.9;13.22132;0;0;-14.90752;-75.06969;1
  966;C;580237927;NA203;;0;1;22.9;13.22132;0;0;-14.93143;-74.98804;1
  967;C;580238144;NA203;;0;1;22.9;13.22132;0;0;-14.92943;-74.98798;1
  968;C;580238160;NA203;;0;1;22.9;13.22132;0;0;-14.92999;-74.99596;1
  969;C;580238161;NA203;;0;1;22.9;13.22132;0;0;-14.93003;-74.99619;1
  970;C;580238166;NA203;;0;1;22.9;13.22132;0;0;-14.93056;-74.99892;1
  971;C;580240370;NA203;;0;1;22.9;13.22132;0;0;-14.93676;-74.98702;1
  972;C;580241137;NA203;;0;1;22.9;13.22132;0;0;-14.94521;-74.97511;1
  973;C;580242136;NA203;;0;1;22.9;13.22132;0;0;-14.97326;-74.97629;1
  974;C;580245708;NA203;;0;1;22.9;13.22132;0;0;-14.87584;-74.97967;1
  975;C;64188;NA203;;0;1;22.9;13.22132;0;0;-14.91851;-74.98691;1
  976;C;67453;NA203;;0;1;22.9;13.22132;0;0;-14.86689;-74.98108;1
  977;C;67456;NA203;;0;1;22.9;13.22132;0;0;-14.86601;-74.98183;1
  978;C;68003;NA203;;0;1;22.9;13.22132;0;0;-14.9207;-74.9966;1
  979;C;68929;NA203;;0;1;22.9;13.22132;0;0;-14.93804;-74.98692;1
  980;C;68930;NA203;;0;1;22.9;13.22132;0;0;-14.938;-74.98669;1
  981;C;74025;NA203;;0;1;22.9;13.22132;0;0;-14.92479;-74.99706;1
  982;C;74038;NA203;;0;1;22.9;13.22132;0;0;-14.92499;-75.00925;1
  983;C;74050;NA203;;0;1;22.9;13.22132;0;0;-14.92395;-75.02269;1
  984;C;74051;NA203;;0;1;22.9;13.22132;0;0;-14.92357;-75.02364;1
  985;C;74058;NA203;;0;1;22.9;13.22132;0;0;-14.92082;-75.03018;1
  986;C;74062;NA203;;0;1;22.9;13.22132;0;0;-14.91916;-75.03401;1
  987;C;74075;NA203;;0;1;22.9;13.22132;0;0;-14.91558;-75.04749;1
  988;C;74077;NA203;;0;1;22.9;13.22132;0;0;-14.91512;-75.04926;1
  989;C;805085P;NA203;;0;1;22.9;13.22132;0;0;-14.97552;-74.8346;1
  990;C;927214P;NA203;;0;1;22.9;13.22132;0;0;-14.94281;-74.96539;1
  991;C;928309P;NA203;;0;1;22.9;13.22132;0;0;-14.93812;-74.95167;1
  992;C;938205P;NA203;;0;1;22.9;13.22132;0;0;-14.9395;-74.95592;1
  993;C;947014P;NA203;;0;1;22.9;13.22132;0;0;-14.88209;-74.98058;1
  994;C;947015P;NA203;;0;1;22.9;13.22132;0;0;-14.89415;-74.98232;1
  995;C;947016P;NA203;;0;1;22.9;13.22132;0;0;-14.89965;-74.98311;1
  996;C;947017P;NA203;;0;1;22.9;13.22132;0;0;-14.90648;-74.9845;1
  997;C;957814P;NA203;;0;1;22.9;13.22132;0;0;-14.85083;-74.95611;1
  998;C;957816P;NA203;;0;1;22.9;13.22132;0;0;-14.85176;-74.95836;1
  999;C;964785P;NA203;;0;1;22.9;13.22132;0;0;-14.93068;-74.99895;1
  1000;C;972210P;NA203;;0;1;22.9;13.22132;0;0;-14.94512;-74.97523;1
  1001;C;982654P(1);NA203;;0;1;22.9;13.22132;0;0;-14.87168;-74.9833;1
  1002;C;982654P;NA203;;0;1;22.9;13.22132;0;0;-14.87168;-74.9833;1
  1003;C;B. Jose Oriol Alfaro Penado;NA203;;0;1;22.9;13.22132;0;0;-14.9666504006484;-74.884600976015;1
  1004;C;CIA MINERA MIGUEL ANGEL.;NA203;;0;1;22.9;13.22132;0;0;0;0;1
  1005;C;CODEGAS NASCA.;NA203;;0;1;22.9;13.22132;0;0;0;0;1
  1006;C;CORP. MINERA VIRGEN DE FATIMA;NA203;;0;1;22.9;13.22132;0;0;0;0;1
  1007;C;COVEMINE S.C.R.L;NA203;;0;1;22.9;13.22132;0;0;0;0;1
  1008;C;FUNDO SAN JOSE III UC 61249;NA203;;0;1;22.9;13.22132;0;0;0;0;1
  1009;C;FUNDO YANACA;NA203;;0;1;22.9;13.22132;0;0;0;0;1
  1010;C;Fundo Cuatro Vientos.;NA203;;0;1;22.9;13.22132;0;0;0;0;1
  1011;C;Gian Franco.;NA203;;0;1;22.9;13.22132;0;0;0;0;1
  1012;C;HONGWEN POLYMETALLIC CORP. SAC;NA203;;0;1;22.9;13.22132;0;0;0;0;1
  1013;C;INVERSIONES DON AURELIO;NA203;;0;1;22.9;13.22132;0;0;0;0;1
  1014;C;JESUS E.CARDENAS M.;NA203;;0;1;22.9;13.22132;0;0;0;0;1
  1015;C;JUSTINO FEDERICO AYBAR MOLINA;NA203;;0;1;22.9;13.22132;0;0;0;0;1
  1016;C;LA AZULITA S.AC;NA203;;0;1;22.9;13.22132;0;0;0;0;1
  1017;C;MI-11908;NA203;;0;1;22.9;13.22132;0;0;-14.85128;-74.95647;1
  1018;C;MI-12211;NA203;;0;1;22.9;13.22132;0;0;-14.94248;-74.98664;1
  1019;C;MI-12214;NA203;;0;1;22.9;13.22132;0;0;-14.97129;-74.98241;1
  1020;C;MI-12220;NA203;;0;1;22.9;13.22132;0;0;-14.94886;-74.98711;1
  1021;C;MI-12582;NA203;;0;1;22.9;13.22132;0;0;-14.97146;-74.98135;1
  1022;C;MI-12657;NA203;;0;1;22.9;13.22132;0;0;-14.87281;-74.98647;1
...


$$ElmTr2;FID(a:40);OP(a:1);loc_name(a:40);fold_id(p);typ_id(p);ntnum(i);outserv(i);nntap(i);i_auto(i);ntrcn(i);usetp(r);usp_low(r);usp_up(r);t2ldc(i)
  1712;C;TR_M50099;690;6256;1;0;3;0;0;1;0.99;1.01;0
  1713;C;TR_M50100;691;6257;1;0;3;0;0;1;0.99;1.01;0
  1714;C;TR_M50102;692;6258;1;0;3;0;0;1;0.99;1.01;0
  1715;C;TR_M50106;693;6259;1;0;3;0;0;1;0.99;1.01;0
  1716;C;TR_M50111;694;6286;1;0;3;0;0;1;0.99;1.01;0
  1717;C;TR_M50122;695;6260;1;0;3;0;0;1;0.99;1.01;0
  1718;C;TR_M50123;696;6261;1;0;3;0;0;1;0.99;1.01;0
  1719;C;TR_M50129;697;6286;1;0;3;0;0;1;0.99;1.01;0
  1720;C;TR_M50134;698;6286;1;0;3;0;0;1;0.99;1.01;0
  1721;C;TR_M50135;699;6262;1;0;3;0;0;1;0.99;1.01;0
  1722;C;TR_M50138;700;6263;1;0;3;0;0;1;0.99;1.01;0
  1723;C;TR_M50139;701;6286;1;0;3;0;0;1;0.99;1.01;0
  1724;C;TR_M50141;702;6286;1;0;3;0;0;1;0.99;1.01;0
  1725;C;TR_M50144;703;6286;1;0;3;0;0;1;0.99;1.01;0
  1726;C;TR_M50145;704;6264;1;0;3;0;0;1;0.99;1.01;0
  1727;C;TR_M50146;705;6265;1;0;3;0;0;1;0.99;1.01;0
  1728;C;TR_M50149;706;6266;1;0;3;0;0;1;0.99;1.01;0
  1729;C;TR_M50150;707;6267;1;0;3;0;0;1;0.99;1.01;0
  1730;C;TR_M50153;708;6268;1;0;3;0;0;1;0.99;1.01;0
  1731;C;TR_M50154;709;6269;1;0;3;0;0;1;0.99;1.01;0
  1732;C;TR_M50156;710;6270;1;0;3;0;0;1;0.99;1.01;0
  1733;C;TR_M50157;711;6271;1;0;3;0;0;1;0.99;1.01;0
  1734;C;TR_M50162;712;6272;1;0;3;0;0;1;0.99;1.01;0
  1735;C;TR_M50163;713;6273;1;0;3;0;0;1;0.99;1.01;0
  1736;C;TR_M50169;714;6274;1;0;3;0;0;1;0.99;1.01;0
  1737;C;TR_M50171;715;6275;1;0;3;0;0;1;0.99;1.01;0
  1738;C;TR_M50172;716;6276;1;0;3;0;0;1;0.99;1.01;0
  1739;C;TR_M50173;717;6277;1;0;3;0;0;1;0.99;1.01;0
  1740;C;TR_M50174;718;6278;1;0;3;0;0;1;0.99;1.01;0
  1741;C;TR_M50175;719;6279;1;0;3;0;0;1;0.99;1.01;0
  1742;C;TR_M50176;720;6280;1;0;3;0;0;1;0.99;1.01;0
  1743;C;TR_M50179;721;6281;1;0;3;0;0;1;0.99;1.01;0
  1744;C;TR_M50180;722;6282;1;0;3;0;0;1;0.99;1.01;0
  1745;C;TR_M50184;723;6283;1;0;3;0;0;1;0.99;1.01;0
  1746;C;TR_M50185;724;6284;1;0;3;0;0;1;0.99;1.01;0
  1747;C;TR_M50188;725;6285;1;0;3;0;0;1;0.99;1.01;0
  1748;C;TR_M50194;726;6286;1;0;3;0;0;1;0.99;1.01;0
  1749;C;TR_M50195;727;6287;1;0;3;0;0;1;0.99;1.01;0
  1750;C;TR_M50196;728;6288;1;0;3;0;0;1;0.99;1.01;0
  1751;C;TR_M50197;729;6289;1;0;3;0;0;1;0.99;1.01;0
  1752;C;TR_M50200;730;6290;1;0;3;0;0;1;0.99;1.01;0
  1753;C;TR_M50201;731;6291;1;0;3;0;0;1;0.99;1.01;0
  1754;C;TR_M50202;732;6292;1;0;3;0;0;1;0.99;1.01;0
  1755;C;TR_M50209;733;6293;1;0;3;0;0;1;0.99;1.01;0
  1756;C;TR_M50210;734;6294;1;0;3;0;0;1;0.99;1.01;0
  1757;C;TR_M50225;735;6295;1;0;3;0;0;1;0.99;1.01;0
  1758;C;TR_M50226;736;6296;1;0;3;0;0;1;0.99;1.01;0
  1759;C;TR_M50244;737;6297;1;0;3;0;0;1;0.99;1.01;0
  1760;C;TR_M50246;738;6298;1;0;3;0;0;1;0.99;1.01;0
  1761;C;TR_M50247;739;6299;1;0;3;0;0;1;0.99;1.01;0
  1762;C;TR_M50249;740;6300;1;0;3;0;0;1;0.99;1.01;0
  1763;C;TR_M50251;741;6301;1;0;3;0;0;1;0.99;1.01;0
  1764;C;TR_M50253;742;6286;1;0;3;0;0;1;0.99;1.01;0
  1765;C;TR_M50259;743;6302;1;0;3;0;0;1;0.99;1.01;0
  1766;C;TR_M50261;744;6303;1;0;3;0;0;1;0.99;1.01;0
  1767;C;TR_M50262;745;6304;1;0;3;0;0;1;0.99;1.01;0
  1768;C;TR_M50276;746;6305;1;0;3;0;0;1;0.99;1.01;0
  1769;C;TR_M50280;747;6306;1;0;3;0;0;1;0.99;1.01;0
  1770;C;TR_M50289;748;6307;1;0;3;0;0;1;0.99;1.01;0
  1771;C;TR_M50290;749;6308;1;0;3;0;0;1;0.99;1.01;0
  1772;C;TR_M50292;750;6309;1;0;3;0;0;1;0.99;1.01;0
  1773;C;TR_M50293;751;6310;1;0;3;0;0;1;0.99;1.01;0
  1774;C;TR_M50294;752;6311;1;0;3;0;0;1;0.99;1.01;0
  1775;C;TR_M50295;753;6312;1;0;3;0;0;1;0.99;1.01;0
  1776;C;TR_M50296;754;6313;1;0;3;0;0;1;0.99;1.01;0
  1777;C;TR_M50297;755;6314;1;0;3;0;0;1;0.99;1.01;0
  1778;C;TR_M50299;756;6315;1;0;3;0;0;1;0.99;1.01;0
  1779;C;TR_M50300;757;6316;1;0;3;0;0;1;0.99;1.01;0
  1780;C;TR_M50301;758;6317;1;0;3;0;0;1;0.99;1.01;0
  1781;C;TR_M50302;759;6318;1;0;3;0;0;1;0.99;1.01;0
  1782;C;TR_M50304;760;6319;1;0;3;0;0;1;0.99;1.01;0
  1783;C;TR_M50307;761;6320;1;0;3;0;0;1;0.99;1.01;0
  1784;C;TR_M50308;762;6321;1;0;3;0;0;1;0.99;1.01;0
  1785;C;TR_M50309;763;6322;1;0;3;0;0;1;0.99;1.01;0
  1786;C;TR_M50310;764;6323;1;0;3;0;0;1;0.99;1.01;0
  1787;C;TR_M50311;765;6324;1;0;3;0;0;1;0.99;1.01;0
  1788;C;TR_M50312;766;6325;1;0;3;0;0;1;0.99;1.01;0
  1789;C;TR_M50313;767;6326;1;0;3;0;0;1;0.99;1.01;0
  1790;C;TR_M50314;768;6327;1;0;3;0;0;1;0.99;1.01;0
  1791;C;TR_M50315;769;6328;1;0;3;0;0;1;0.99;1.01;0
  1792;C;TR_SE50033;770;6329;1;0;3;0;0;1;0.99;1.01;0
  1793;C;TR_SE50049;771;6374;1;0;3;0;0;1;0.99;1.01;0
  1794;C;TR_SE50064;772;6329;1;0;3;0;0;1;0.99;1.01;0
  1795;C;TR_SE50070;773;6354;1;0;3;0;0;1;0.99;1.01;0
  1796;C;TR_SE50075;774;6330;1;0;3;0;0;1;0.99;1.01;0
  1797;C;TR_SE50076;775;6331;1;0;3;0;0;1;0.99;1.01;0
  1798;C;TR_SE50077;776;6332;1;0;3;0;0;1;0.99;1.01;0
  1799;C;TR_SE50078;777;6333;1;0;3;0;0;1;0.99;1.01;0
  1800;C;TR_SE50079;778;6334;1;0;3;0;0;1;0.99;1.01;0
  1801;C;TR_SE50080;779;6335;1;0;3;0;0;1;0.99;1.01;0
  1802;C;TR_SE50081;780;6336;1;0;3;0;0;1;0.99;1.01;0
  1803;C;TR_SE50082;781;6337;1;0;3;0;0;1;0.99;1.01;0
  1804;C;TR_SE50083;782;6338;1;0;3;0;0;1;0.99;1.01;0
  1805;C;TR_SE50084;783;6339;1;0;3;0;0;1;0.99;1.01;0
  1806;C;TR_SE50085;784;6340;1;0;3;0;0;1;0.99;1.01;0
  1807;C;TR_SE50086;785;6341;1;0;3;0;0;1;0.99;1.01;0
  1808;C;TR_SE50087;786;6342;1;0;3;0;0;1;0.99;1.01;0
  1809;C;TR_SE50088;787;6343;1;0;3;0;0;1;0.99;1.01;0
  1810;C;TR_SE50089;788;6344;1;0;3;0;0;1;0.99;1.01;0
  1811;C;TR_SE50090;789;6345;1;0;3;0;0;1;0.99;1.01;0
  1812;C;TR_SE50091;790;6346;1;0;3;0;0;1;0.99;1.01;0
  1813;C;TR_SE50092;791;6347;1;0;3;0;0;1;0.99;1.01;0
  1814;C;TR_SE50093;792;6348;1;0;3;0;0;1;0.99;1.01;0
  1815;C;TR_SE50094;793;6349;1;0;3;0;0;1;0.99;1.01;0
  1816;C;TR_SE50095;794;6350;1;0;3;0;0;1;0.99;1.01;0
  1817;C;TR_SE50096;795;6351;1;0;3;0;0;1;0.99;1.01;0
  1818;C;TR_SE50108;796;6352;1;0;3;0;0;1;0.99;1.01;0
  1819;C;TR_SE50110;797;6329;1;0;3;0;0;1;0.99;1.01;0
  1820;C;TR_SE50126;798;6353;1;0;3;0;0;1;0.99;1.01;0
  1821;C;TR_SE50132;799;6354;1;0;3;0;0;1;0.99;1.01;0
  1822;C;TR_SE50167;800;6355;1;0;3;0;0;1;0.99;1.01;0
  1823;C;TR_SE50178;801;6356;1;0;3;0;0;1;0.99;1.01;0
  1824;C;TR_SE50187;802;6354;1;0;3;0;0;1;0.99;1.01;0
  1825;C;TR_SE50243;803;6357;1;0;3;0;0;1;0.99;1.01;0
  1826;C;TR_SE50249;804;6358;1;0;3;0;0;1;0.99;1.01;0
  1827;C;TR_SE50250;805;6359;1;0;3;0;0;1;0.99;1.01;0
  1828;C;TR_SE50254;806;6360;1;0;3;0;0;1;0.99;1.01;0
  1829;C;TR_SE50255;807;6361;1;0;3;0;0;1;0.99;1.01;0
  1830;C;TR_SE50256;808;6362;1;0;3;0;0;1;0.99;1.01;0
  1831;C;TR_SE50265;809;6363;1;0;3;0;0;1;0.99;1.01;0
  1832;C;TR_SE50266;810;6364;1;0;3;0;0;1;0.99;1.01;0
  1833;C;TR_SE50267;811;6365;1;0;3;0;0;1;0.99;1.01;0
  1834;C;TR_SE50268;812;6366;1;0;3;0;0;1;0.99;1.01;0
  1835;C;TR_SE50269;813;6367;1;0;3;0;0;1;0.99;1.01;0
  1836;C;TR_SE50271;814;6368;1;0;3;0;0;1;0.99;1.01;0
  1837;C;TR_SE50272;815;6369;1;0;3;0;0;1;0.99;1.01;0
  1838;C;TR_SE50288;816;6370;1;0;3;0;0;1;0.99;1.01;0
  1839;C;TR_SE50290-6;817;6371;1;0;3;0;0;1;0.99;1.01;0
  1840;C;TR_SE50299;818;6372;1;0;3;0;0;1;0.99;1.01;0
  1841;C;TR_SE50318;819;6373;1;0;3;0;0;1;0.99;1.01;0
  1842;C;TR_SE50320;820;6374;1;0;3;0;0;1;0.99;1.01;0


$$ElmTr3;FID(a:40);OP(a:1);loc_name(a:40);fold_id(p);nt3nm(i);typ_id(p);outserv(i);n3tap_h(i);n3tap_m(i);n3tap_l(i);i_auto_hl(i);ictrlside(i);ntrcn(i);t3ldc(i);usetp(r);usp_low(r);usp_up(r)
  1843;C;3-Winding Transformer(1);NA203;1;6375;0;-5;0;0;0;0;1;1;1.05;0.9;1.1


$$ElmVoltreg;FID(a:40);OP(a:1);loc_name(a:40);fold_id(p);typ_id(p);outserv(i);i_pcReglim(i);igang(i);nntap1(i);nntap2(i);nntap3(i);ntrcn(i);i_cont(i);usetp(r);usp_low(r);usp_up(r)
  1844;C;Regulator;NA203;6376;0;0;0;0;0;0;1;0;1.05;0.94;1.1


$$ElmXnet;FID(a:40);OP(a:1);loc_name(a:40);fold_id(p);snss(r);rntxn(r);z2tz1(r);snssmin(r);rntxnmin(r);z2tz1min(r);chr_name(a:20);bustp(a:2);pgini(r);qgini(r);phiini(r);usetp(r);outserv(i);Kpf(r);K(r)
  1845;C;External Grid(2);NA203;174.61;0.310551;1.011926;174.61;0.310551;1.011926;;PV;0;0;0;1;0;0;0
  1846;C;External Grid;NA203;10000;0.1;1;8000;0.1;1;;PV;0;0;0;1.05;0;0;0


$$IntGrf;FID(a:40);OP(a:1);loc_name(a:40);fold_id(p);iCol(i);iVis(i);iLevel(i);rCenterX(r);rCenterY(r);sSymNam(a:40);pDataObj(p);iRot(i);rSizeX(r);rSizeY(r)
  1847;C;ColLeg(1);3981;1;1;42;68428.95;64941.34;__COLGRAF__;;0;0.6;0.6
  1848;C;Graphical Net Object(100);3981;1;1;1;48882.72;49168.11;d_lin;373;279;1;1
  1849;C;Graphical Net Object(101);3981;1;1;1;47895.97;27353.57;PointTerm;1700;33;1;1
  1850;C;Graphical Net Object(102);3981;1;1;1;47893.39;27351.88;d_lin;485;123;1;1
  1851;C;Graphical Net Object(103);3981;1;1;1;47637.38;32641.03;PointTerm;1701;0;1;1
  1852;C;Graphical Net Object(104);3981;1;1;1;47637.36;32641.02;d_lin;204;129;1;1
  1853;C;Graphical Net Object(105);3981;1;1;1;47862.11;32994.2;PointTerm;1702;327;1;1
  1854;C;Graphical Net Object(106);3981;1;1;1;47838.11;32967.45;d_lin;206;90;1;1
  1855;C;Graphical Net Object(107);3981;1;1;1;47067.11;48838.35;PointTerm;1703;99;1;1
  1856;C;Graphical Net Object(13);3981;1;1;1;48281.69;27747.1;d_lin;505;173;1;1
  1857;C;Graphical Net Object(29);3981;1;1;1;52437.4;52818.92;d_lin;125;119;1;1
  1858;C;Graphical Net Object(3);3981;1;1;1;55601.72;54610.04;TermStrip;1628;0;2.005412;1
  1859;C;Graphical Net Object(30);3981;1;1;1;48780.36;42436.79;d_lin;320;170;1;1
  1860;C;Graphical Net Object(33);3981;1;1;1;48651.9;41755.83;d_lin;321;169;1;1
  1861;C;Graphical Net Object(34);3981;1;1;1;48420.66;40402.87;d_lin;323;351;1;1
  1862;C;Graphical Net Object(35);3981;1;1;1;48333.55;39776.14;d_lin;334;172;1;1
  1863;C;Graphical Net Object(38);3981;1;1;1;48212.25;38918.36;d_lin;336;172;1;1
  1864;C;Graphical Net Object(39);3981;1;1;1;47798.26;35786.45;d_lin;144;179;1;1
  1865;C;Graphical Net Object(4);3981;1;1;1;47943.74;32393.63;d_lin;325;356;1;1
  1866;C;Graphical Net Object(40);3981;1;1;1;47787.31;35527.23;d_lin;145;175;1;1
  1867;C;Graphical Net Object(41);3981;1;1;1;47962.25;34246.16;d_lin;113;1;1;1
  1868;C;Graphical Net Object(42);3981;1;1;1;48009.64;33936.67;d_lin;31;3;1;1
  1869;C;Graphical Net Object(43);3981;1;1;1;47931.88;32153.38;d_lin;325;356;1;1
  1870;C;Graphical Net Object(44);3981;1;1;1;47934.99;31605.51;d_lin;40;7;1;1
  1871;C;Graphical Net Object(45);3981;1;1;1;48102.5;29721.65;d_lin;97;188;1;1
  1872;C;Graphical Net Object(46);3981;1;1;1;48281.81;28812.34;d_lin;504;190;1;1
  1873;C;Graphical Net Object(47);3981;1;1;1;48150.93;26766.47;d_lin;170;354;1;1
  1874;C;Graphical Net Object(48);3981;1;1;1;48282.18;27744.51;d_lin;505;173;1;1
  1875;C;Graphical Net Object(5);3981;1;1;1;73347.65;26789.69;d_lin;78;79;1;1
  1876;C;Graphical Net Object(50);3981;1;1;1;62053.51;26066.4;d_lin;72;274;1;1
  1877;C;Graphical Net Object(52);3981;1;1;1;52085.34;52508.58;d_lin;189;199;1;1
  1878;C;Graphical Net Object(53);3981;1;1;1;53364.07;53258.42;d_lin;121;117;1;1
  1879;C;Graphical Net Object(54);3981;1;1;1;53878.82;53510.39;d_lin;122;115;1;1
  1880;C;Graphical Net Object(84);3981;1;1;1;48849.64;49156.22;PointTerm;1696;0;1;1
  1881;C;Graphical Net Object(99);3981;1;1;1;48271.97;39205.73;d_lin;335;172;1;1
  1882;C;Graphical Net Object;3981;1;1;1;53223.41;53248.33;d_lin;124;299;1;1
  1883;C;Graphical Net Object1001(1);3981;1;1;1;72895.12;26882.26;PointTerm;1003;349;1;1
  1884;C;Graphical Net Object1001(2);3981;1;1;1;49873.63;50315.49;PointTerm;1687;0;1;1
  1885;C;Graphical Net Object1001(3);3981;1;1;1;49846.46;50285.67;PointTerm;1711;0;1;1
  1886;C;Graphical Net Object1001;3981;1;1;1;49339.66;50524.13;PointTerm;1710;0;1;1
  1887;C;Graphical Net Object1002(1);3981;1;1;1;45946.66;36820.03;PointTerm;1011;0;1;1
  1888;C;Graphical Net Object1002(2);3981;1;1;1;49902.62;50293.17;PointTerm;1688;90;1;1
  1889;C;Graphical Net Object1002(3);3981;1;1;1;49881.4;50268.29;PointTerm;1615;90;1;1
  1890;C;Graphical Net Object1002;3981;1;1;1;49401.29;50474.5;d_lin;399;231;1;1
  1891;C;Graphical Net Object1003(2);3981;1;1;1;48113.74;27496.68;d_load;514;224;1;1
  1892;C;Graphical Net Object1003(3);3981;1;1;1;49320.27;50518.82;d_load;681;285;1;1
  1893;C;Graphical Net Object1003(4);3981;1;1;1;50076.02;50584.6;d_lin;495;143;1;1
  1894;C;Graphical Net Object1003(5);3981;1;1;1;50099.17;50571.16;d_lin;496;142;1;1
  1895;C;Graphical Net Object1003;3981;1;1;1;45805.19;36981.52;d_lin;397;41;1;1
  1896;C;Graphical Net Object1004(2);3981;1;1;1;72905.18;26900.12;d_load;524;152;1;1
  1897;C;Graphical Net Object1004(3);3981;1;1;1;81418.27;25233.76;PointTerm;1104;0;1;1
  1898;C;Graphical Net Object1004;3981;1;1;1;45958.19;36806.87;d_load;522;41;1;1
  1899;C;Graphical Net Object1005(1);3981;1;1;1;49331.48;49741.61;d_lin;474;317;1;1
  1900;C;Graphical Net Object1005(2);3981;1;1;1;50295.37;50850.05;PointTerm;1689;0;1;1
  1901;C;Graphical Net Object1005(3);3981;1;1;1;49384.15;49731.71;d_lin;482;137;1;1
  1902;C;Graphical Net Object1005;3981;1;1;1;81463.57;25216.53;d_lin;398;249;1;1
  1903;C;Graphical Net Object1006(5);3981;1;1;1;49858.74;50298.16;d_lin;491;275;1;1
  1904;C;Graphical Net Object1006;3981;1;1;1;81401.91;25239.98;d_load;530;249;1;1
  1905;C;Graphical Net Object1007(1);3981;1;1;1;48123.95;27466.16;PointTerm;1690;0;1;1
  1906;C;Graphical Net Object1007(2);3981;1;1;1;47890.8;27350.18;PointTerm;1699;0;1;1
  1907;C;Graphical Net Object1008(1);3981;1;1;1;48178.24;27468.12;d_lin;486;272;1;1
  1908;C;Graphical Net Object1008(2);3981;1;1;1;47978.73;27407.88;d_lin;484;123;1;1
  1909;C;Graphical Net Object1009;3981;1;1;1;48113.11;27452.53;d_load;506;322;1;1
  1910;C;Graphical Net Object1010;3981;1;1;1;51679.21;32374.66;d_load;531;347;1;1
  1911;C;Graphical Net Object1011;3981;1;1;1;50368.08;26084.35;d_load;525;179;1;1
  1912;C;Graphical Net Object1012;3981;1;1;1;47818.21;36073.06;d_load;527;149;1;1
  1913;C;Graphical Net Object1014;3981;1;1;1;47641.45;35687.95;d_load;516;281;1;1
  1914;C;Graphical Net Object1015(1);3981;1;1;1;48182.81;27506.74;d_net;1846;270;1;1
  1915;C;Graphical Net Object1015;3981;1;1;1;48209.75;27505.68;TermStrip;1108;270;1;1
  1916;C;Graphical Net Object1016;3981;1;1;1;48235.94;27516.27;PointTerm;1691;0;1;1
  1917;C;Graphical Net Object1017;3981;1;1;1;48249.82;27514.53;PointTerm;1692;0;1;1
  1918;C;Graphical Net Object1020;3981;1;1;1;48222.84;27514.44;d_lin;487;98;1;1
  1919;C;Graphical Net Object1021;3981;1;1;1;48229.79;27510.35;d_lin;488;102;1;1
  1920;C;Graphical Net Object1022;3981;1;1;1;48221.14;27482.69;d_lin;489;42;1;1
  1921;C;Graphical Net Object1023;3981;1;1;1;48228.53;27484.38;d_lin;490;48;1;1
  1922;C;Graphical Net Object1024;3981;1;1;1;48090.09;38333.68;PointTerm;1693;0;1;1
  1923;C;Graphical Net Object1025;3981;1;1;1;48125.65;38332.6;PointTerm;1695;0;1;1
  1924;C;Graphical Net Object1028;3981;1;1;1;47635.19;49319.61;d_load;513;266;1;1
  1925;C;Graphical Net Object1036;3981;1;1;1;49892.01;50280.73;d_couple;6;320;1;1
  1926;C;Graphical Net Object1037;3981;1;1;1;49340.08;50426.71;d_genstat;21;180;1;1
  1927;C;Graphical Net Object1038;3981;1;1;1;48285.91;32288.06;d_load;515;65;1;1
  1928;C;Graphical Net Object1039;3981;1;1;1;48238.61;39008.04;PointTerm;1697;0;1;1
  1929;C;Graphical Net Object1041;3981;1;1;1;48310.79;39491.21;d_load;678;84;1;1
  1930;C;Graphical Net Object1043;3981;1;1;1;37984.65;37634.7;PointTerm;1698;0;1;1
  1931;C;Graphical Net Object1044;3981;1;1;1;37979;37618.14;d_load;517;341;1;1
  1932;C;Graphical Net Object1047;3981;1;1;1;47881.15;27355.68;d_load;507;241;1;1
  1933;C;Graphical Net Object1050;3981;1;1;1;48085.4;34229.11;d_load;510;108;1;1
  1934;C;Graphical Net Object1051;3981;1;1;1;48033.93;34266.29;d_load;677;137;1;1
  1935;C;Graphical Net Object1052;3981;1;1;1;47783.82;36045.74;d_load;521;266;1;1
  1936;C;Graphical Net Object1053;3981;1;1;1;47894.48;36030.74;d_load;509;82;1;1
  1937;C;Graphical Net Object1056;3981;1;1;1;48200.08;34050.2;d_load;533;96;1;1
  1938;C;Graphical Net Object1058;3981;1;1;1;47823.42;32976.96;d_load;532;294;1;1
  1939;C;Graphical Net Object1062;3981;1;1;1;34109.66;39071.56;d_load;520;356;1;1
  1940;C;Graphical Net Object1064;3981;1;1;1;47173.3;48825.28;d_load;537;320;1;1
  1941;C;Graphical Net Object1065;3981;1;1;1;47904.45;36000.72;d_load;508;67;1;1
  1942;C;Graphical Net Object1411(1);3981;1;1;1;49272.91;48528.84;PointTerm;1646;0;1;1
  1943;C;Graphical Net Object1411;3981;1;1;1;49266.04;48524.09;PointTerm;1708;0;1;1
  1944;C;Graphical Net Object836;3981;1;1;1;54128.18;53627.53;PointTerm;1630;0;1;1
  1945;C;Graphical Net Object837;3981;1;1;1;54078.37;53585.26;PointTerm;1641;0;1;1
  1946;C;Graphical Net Object849;3981;1;1;1;51855.05;52445.46;PointTerm;1674;0;1;1
  1947;C;Graphical Net Object851(1);3981;1;1;1;52054.8;52594.32;PointTerm;1663;0;1;1
  1948;C;Graphical Net Object851;3981;1;1;1;53659.66;53421.33;PointTerm;1652;0;1;1
  1949;C;Graphical Net Object856;3981;1;1;1;51748.79;52386.16;PointTerm;1685;0;1;1
  1950;C;Graphical Net Object857;3981;1;1;1;51650.21;52322.09;PointTerm;1694;0;1;1
  1951;C;Graphical Net Object864;3981;1;1;1;51525.37;52300.58;PointTerm;1704;0;1;1
  1952;C;Graphical Net Object865;3981;1;1;1;53059.73;53159.32;PointTerm;1647;209;1;1
  1953;C;Graphical Net Object867(1);3981;1;1;1;48727.02;42148.09;PointTerm;1653;80;1;1
  1954;C;Graphical Net Object867;3981;1;1;1;53056.22;53203.7;PointTerm;1648;0;1;1
...